topology_creation/OpenDSS_data/LINES_LV_9.dss
new line.LVN_9_1 bus1=LVN_9_b1 bus2=LVN_9_b83 phases=3 linecode=4c_1 length=16.021200 units=m
new line.LVN_9_2 bus1=LVN_9_b3 bus2=LVN_9_b13 phases=3 linecode=2c_022 length=20.979800 units=m
new line.LVN_9_3 bus1=LVN_9_b13 bus2=LVN_9_b14 phases=3 linecode=4c_1 length=5.904860 units=m
new line.LVN_9_4 bus1=LVN_9_b13 bus2=LVN_9_b18 phases=3 linecode=4c_1 length=12.622500 units=m
new line.LVN_9_5 bus1=LVN_9_b14 bus2=LVN_9_b19 phases=3 linecode=2c_022 length=5.351340 units=m
new line.LVN_9_6 bus1=LVN_9_b14 bus2=LVN_9_b40 phases=3 linecode=2c_16 length=6.767840 units=m
new line.LVN_9_7 bus1=LVN_9_b18 bus2=LVN_9_b20 phases=3 linecode=4c_1 length=5.726520 units=m
new line.LVN_9_8 bus1=LVN_9_b18 bus2=LVN_9_b25 phases=3 linecode=4c_1 length=13.592900 units=m
new line.LVN_9_9 bus1=LVN_9_b20 bus2=LVN_9_b28 phases=3 linecode=2c_022 length=6.152600 units=m
new line.LVN_9_10 bus1=LVN_9_b20 bus2=LVN_9_b46 phases=3 linecode=2c_16 length=6.444110 units=m
new line.LVN_9_11 bus1=LVN_9_b25 bus2=LVN_9_b35 phases=3 linecode=4c_1 length=7.562510 units=m
new line.LVN_9_12 bus1=LVN_9_b25 bus2=LVN_9_b788 phases=3 linecode=4c_1 length=39.250800 units=m
new line.LVN_9_13 bus1=LVN_9_b35 bus2=LVN_9_b42 phases=3 linecode=4c_1 length=7.159250 units=m
new line.LVN_9_14 bus1=LVN_9_b35 bus2=LVN_9_b43 phases=3 linecode=2c_022 length=12.294900 units=m
new line.LVN_9_15 bus1=LVN_9_b42 bus2=LVN_9_b56 phases=3 linecode=4c_1 length=15.014900 units=m
new line.LVN_9_16 bus1=LVN_9_b42 bus2=LVN_9_b619 phases=3 linecode=4c_1 length=10.276900 units=m
new line.LVN_9_17 bus1=LVN_9_b56 bus2=LVN_9_b61 phases=3 linecode=4c_1 length=4.172660 units=m
new line.LVN_9_18 bus1=LVN_9_b56 bus2=LVN_9_b121 phases=3 linecode=4c_1 length=28.186800 units=m
new line.LVN_9_19 bus1=LVN_9_b61 bus2=LVN_9_b70 phases=3 linecode=4c_1 length=16.094700 units=m
new line.LVN_9_20 bus1=LVN_9_b61 bus2=LVN_9_b152 phases=3 linecode=35_SA length=15.297000 units=m
new line.LVN_9_21 bus1=LVN_9_b70 bus2=LVN_9_b83 phases=3 linecode=4c_1 length=16.332500 units=m
new line.LVN_9_22 bus1=LVN_9_b70 bus2=LVN_9_b129 phases=3 linecode=4c_1 length=11.185300 units=m
new line.LVN_9_23 bus1=LVN_9_b70 bus2=LVN_9_b279 phases=3 linecode=4c_1 length=10.874700 units=m
new line.LVN_9_24 bus1=LVN_9_b80 bus2=LVN_9_b81 phases=3 linecode=4c_1 length=6.520670 units=m
new line.LVN_9_25 bus1=LVN_9_b80 bus2=LVN_9_b332 phases=3 linecode=4c_1 length=0.916786 units=m
new line.LVN_9_26 bus1=LVN_9_b80 bus2=LVN_9_b335 phases=3 linecode=4c_1 length=4.322870 units=m
new line.LVN_9_27 bus1=LVN_9_b81 bus2=LVN_9_b588 phases=3 linecode=4c_1 length=9.089030 units=m
new line.LVN_9_28 bus1=LVN_9_b81 bus2=LVN_9_b590 phases=3 linecode=35_SA length=13.768800 units=m
new line.LVN_9_29 bus1=LVN_9_b83 bus2=LVN_9_b147 phases=3 linecode=4c_1 length=10.406800 units=m
new line.LVN_9_30 bus1=LVN_9_b83 bus2=LVN_9_b606 phases=3 linecode=4c_1 length=11.158000 units=m
new line.LVN_9_31 bus1=LVN_9_b121 bus2=LVN_9_b131 phases=3 linecode=4c_1 length=4.069630 units=m
new line.LVN_9_32 bus1=LVN_9_b121 bus2=LVN_9_b226 phases=3 linecode=2c_022 length=14.518000 units=m
new line.LVN_9_33 bus1=LVN_9_b129 bus2=LVN_9_b141 phases=3 linecode=2c_16 length=7.344900 units=m
new line.LVN_9_34 bus1=LVN_9_b129 bus2=LVN_9_b171 phases=3 linecode=2c_16 length=6.166340 units=m
new line.LVN_9_35 bus1=LVN_9_b131 bus2=LVN_9_b168 phases=3 linecode=4c_1 length=13.221500 units=m
new line.LVN_9_36 bus1=LVN_9_b131 bus2=LVN_9_b195 phases=3 linecode=2c_022 length=14.967900 units=m
new line.LVN_9_37 bus1=LVN_9_b147 bus2=LVN_9_b176 phases=3 linecode=2c_022 length=6.921350 units=m
new line.LVN_9_38 bus1=LVN_9_b147 bus2=LVN_9_b182 phases=3 linecode=2c_022 length=6.667210 units=m
new line.LVN_9_39 bus1=LVN_9_b168 bus2=LVN_9_b181 phases=3 linecode=4c_1 length=10.679400 units=m
new line.LVN_9_40 bus1=LVN_9_b168 bus2=LVN_9_b190 phases=3 linecode=4c_1 length=7.698560 units=m
new line.LVN_9_41 bus1=LVN_9_b181 bus2=LVN_9_b187 phases=3 linecode=4c_1 length=6.672870 units=m
new line.LVN_9_42 bus1=LVN_9_b181 bus2=LVN_9_b191 phases=3 linecode=35_SA length=12.750400 units=m
new line.LVN_9_43 bus1=LVN_9_b187 bus2=LVN_9_b231 phases=3 linecode=4c_1 length=10.073900 units=m
new line.LVN_9_44 bus1=LVN_9_b187 bus2=LVN_9_b236 phases=3 linecode=35_SA length=15.803100 units=m
new line.LVN_9_45 bus1=LVN_9_b190 bus2=LVN_9_b201 phases=3 linecode=2c_16 length=5.197280 units=m
new line.LVN_9_46 bus1=LVN_9_b190 bus2=LVN_9_b227 phases=3 linecode=2c_022 length=8.523860 units=m
new line.LVN_9_47 bus1=LVN_9_b231 bus2=LVN_9_b251 phases=3 linecode=4c_1 length=27.589400 units=m
new line.LVN_9_48 bus1=LVN_9_b231 bus2=LVN_9_b375 phases=3 linecode=4c_1 length=11.699000 units=m
new line.LVN_9_49 bus1=LVN_9_b251 bus2=LVN_9_b257 phases=3 linecode=4c_1 length=13.574300 units=m
new line.LVN_9_50 bus1=LVN_9_b251 bus2=LVN_9_b344 phases=3 linecode=2c_16 length=17.695300 units=m
new line.LVN_9_51 bus1=LVN_9_b257 bus2=LVN_9_b260 phases=3 linecode=4c_1 length=10.276900 units=m
new line.LVN_9_52 bus1=LVN_9_b257 bus2=LVN_9_b270 phases=3 linecode=4c_1 length=16.058600 units=m
new line.LVN_9_53 bus1=LVN_9_b260 bus2=LVN_9_b268 phases=3 linecode=35_SA length=9.480190 units=m
new line.LVN_9_54 bus1=LVN_9_b260 bus2=LVN_9_b296 phases=3 linecode=35_SA length=7.008910 units=m
new line.LVN_9_55 bus1=LVN_9_b270 bus2=LVN_9_b285 phases=3 linecode=4c_1 length=10.658400 units=m
new line.LVN_9_56 bus1=LVN_9_b270 bus2=LVN_9_b335 phases=3 linecode=4c_1 length=6.496980 units=m
new line.LVN_9_57 bus1=LVN_9_b279 bus2=LVN_9_b284 phases=3 linecode=35_SA length=5.583660 units=m
new line.LVN_9_58 bus1=LVN_9_b279 bus2=LVN_9_b293 phases=3 linecode=35_SA length=9.800680 units=m
new line.LVN_9_59 bus1=LVN_9_b285 bus2=LVN_9_b295 phases=3 linecode=2c_022 length=6.606300 units=m
new line.LVN_9_60 bus1=LVN_9_b285 bus2=LVN_9_b329 phases=3 linecode=35_SA length=7.094120 units=m
new line.LVN_9_61 bus1=LVN_9_b314 bus2=LVN_9_b326 phases=3 linecode=4c_1 length=10.242500 units=m
new line.LVN_9_62 bus1=LVN_9_b314 bus2=LVN_9_b338 phases=3 linecode=2c_022 length=15.051900 units=m
new line.LVN_9_63 bus1=LVN_9_b314 bus2=LVN_9_b354 phases=3 linecode=4c_1 length=21.014300 units=m
new line.LVN_9_64 bus1=LVN_9_b318 bus2=LVN_9_b331 phases=3 linecode=2c_022 length=14.004300 units=m
new line.LVN_9_65 bus1=LVN_9_b318 bus2=LVN_9_b332 phases=3 linecode=4c_1 length=9.089030 units=m
new line.LVN_9_66 bus1=LVN_9_b318 bus2=LVN_9_b422 phases=3 linecode=35_SA length=19.144000 units=m
new line.LVN_9_67 bus1=LVN_9_b326 bus2=LVN_9_b335 phases=3 linecode=4c_1 length=3.640690 units=m
new line.LVN_9_68 bus1=LVN_9_b326 bus2=LVN_9_b349 phases=3 linecode=2c_16 length=16.051500 units=m
new line.LVN_9_69 bus1=LVN_9_b332 bus2=LVN_9_b370 phases=3 linecode=2c_16 length=13.768800 units=m
new line.LVN_9_70 bus1=LVN_9_b354 bus2=LVN_9_b366 phases=3 linecode=2c_16 length=8.941550 units=m
new line.LVN_9_71 bus1=LVN_9_b354 bus2=LVN_9_b368 phases=3 linecode=2c_022 length=6.037010 units=m
new line.LVN_9_72 bus1=LVN_9_b371 bus2=LVN_9_b375 phases=3 linecode=4c_1 length=12.009900 units=m
new line.LVN_9_73 bus1=LVN_9_b371 bus2=LVN_9_b379 phases=3 linecode=2c_022 length=14.974700 units=m
new line.LVN_9_74 bus1=LVN_9_b371 bus2=LVN_9_b381 phases=3 linecode=4c_1 length=10.921500 units=m
new line.LVN_9_75 bus1=LVN_9_b375 bus2=LVN_9_b508 phases=3 linecode=4c_1 length=4.027160 units=m
new line.LVN_9_76 bus1=LVN_9_b381 bus2=LVN_9_b384 phases=3 linecode=4c_1 length=15.245900 units=m
new line.LVN_9_77 bus1=LVN_9_b381 bus2=LVN_9_b464 phases=3 linecode=4c_1 length=12.758800 units=m
new line.LVN_9_78 bus1=LVN_9_b384 bus2=LVN_9_b393 phases=3 linecode=4c_1 length=11.260200 units=m
new line.LVN_9_79 bus1=LVN_9_b384 bus2=LVN_9_b400 phases=3 linecode=4c_1 length=22.079800 units=m
new line.LVN_9_80 bus1=LVN_9_b393 bus2=LVN_9_b406 phases=3 linecode=2c_022 length=6.777810 units=m
new line.LVN_9_81 bus1=LVN_9_b393 bus2=LVN_9_b436 phases=3 linecode=35_SA length=5.771160 units=m
new line.LVN_9_82 bus1=LVN_9_b400 bus2=LVN_9_b409 phases=3 linecode=4c_1 length=10.873300 units=m
new line.LVN_9_83 bus1=LVN_9_b400 bus2=LVN_9_b427 phases=3 linecode=4c_1 length=19.460300 units=m
new line.LVN_9_84 bus1=LVN_9_b409 bus2=LVN_9_b418 phases=3 linecode=2c_022 length=7.129040 units=m
new line.LVN_9_85 bus1=LVN_9_b409 bus2=LVN_9_b445 phases=3 linecode=2c_022 length=5.674490 units=m
new line.LVN_9_86 bus1=LVN_9_b427 bus2=LVN_9_b432 phases=3 linecode=4c_1 length=2.803080 units=m
new line.LVN_9_87 bus1=LVN_9_b427 bus2=LVN_9_b460 phases=3 linecode=4c_1 length=10.771500 units=m
new line.LVN_9_88 bus1=LVN_9_b432 bus2=LVN_9_b535 phases=3 linecode=4c_1 length=4.705090 units=m
new line.LVN_9_89 bus1=LVN_9_b432 bus2=LVN_9_b679 phases=3 linecode=4c_1 length=14.294400 units=m
new line.LVN_9_90 bus1=LVN_9_b460 bus2=LVN_9_b470 phases=3 linecode=2c_16 length=10.336300 units=m
new line.LVN_9_91 bus1=LVN_9_b460 bus2=LVN_9_b477 phases=3 linecode=2c_16 length=8.091710 units=m
new line.LVN_9_92 bus1=LVN_9_b464 bus2=LVN_9_b468 phases=3 linecode=2c_022 length=3.258680 units=m
new line.LVN_9_93 bus1=LVN_9_b464 bus2=LVN_9_b471 phases=3 linecode=2c_16 length=9.693270 units=m
new line.LVN_9_94 bus1=LVN_9_b479 bus2=LVN_9_b518 phases=3 linecode=35_SA length=10.967400 units=m
new line.LVN_9_95 bus1=LVN_9_b481 bus2=LVN_9_b513 phases=3 linecode=35_SA length=9.338990 units=m
new line.LVN_9_96 bus1=LVN_9_b485 bus2=LVN_9_b494 phases=3 linecode=2c_022 length=7.129040 units=m
new line.LVN_9_97 bus1=LVN_9_b485 bus2=LVN_9_b498 phases=3 linecode=4c_1 length=30.333600 units=m
new line.LVN_9_98 bus1=LVN_9_b485 bus2=LVN_9_b507 phases=3 linecode=2c_16 length=5.690110 units=m
new line.LVN_9_99 bus1=LVN_9_b489 bus2=LVN_9_b518 phases=3 linecode=2c_16 length=9.420550 units=m
new line.LVN_9_100 bus1=LVN_9_b498 bus2=LVN_9_b508 phases=3 linecode=4c_1 length=15.946200 units=m
new line.LVN_9_101 bus1=LVN_9_b498 bus2=LVN_9_b518 phases=3 linecode=4c_1 length=8.797810 units=m
new line.LVN_9_102 bus1=LVN_9_b508 bus2=LVN_9_b513 phases=3 linecode=4c_1 length=10.124600 units=m
new line.LVN_9_103 bus1=LVN_9_b513 bus2=LVN_9_b520 phases=3 linecode=2c_16 length=7.508330 units=m
new line.LVN_9_104 bus1=LVN_9_b526 bus2=LVN_9_b543 phases=3 linecode=35_SA length=6.913550 units=m
new line.LVN_9_105 bus1=LVN_9_b526 bus2=LVN_9_b547 phases=3 linecode=4c_1 length=12.448300 units=m
new line.LVN_9_106 bus1=LVN_9_b526 bus2=LVN_9_b551 phases=3 linecode=35_SA length=8.238180 units=m
new line.LVN_9_107 bus1=LVN_9_b530 bus2=LVN_9_b537 phases=3 linecode=2c_022 length=26.296200 units=m
new line.LVN_9_108 bus1=LVN_9_b530 bus2=LVN_9_b547 phases=3 linecode=4c_1 length=14.136100 units=m
new line.LVN_9_109 bus1=LVN_9_b530 bus2=LVN_9_b554 phases=3 linecode=2c_022 length=18.459100 units=m
new line.LVN_9_110 bus1=LVN_9_b535 bus2=LVN_9_b547 phases=3 linecode=4c_1 length=12.300000 units=m
new line.LVN_9_111 bus1=LVN_9_b535 bus2=LVN_9_b552 phases=3 linecode=2c_16 length=19.295900 units=m
new line.LVN_9_112 bus1=LVN_9_b583 bus2=LVN_9_b588 phases=3 linecode=35_SA length=20.484600 units=m
new line.LVN_9_113 bus1=LVN_9_b588 bus2=LVN_9_b598 phases=3 linecode=2c_16 length=14.004300 units=m
new line.LVN_9_114 bus1=LVN_9_b606 bus2=LVN_9_b610 phases=3 linecode=35_SA length=5.583660 units=m
new line.LVN_9_115 bus1=LVN_9_b606 bus2=LVN_9_b614 phases=3 linecode=2c_022 length=9.800680 units=m
new line.LVN_9_116 bus1=LVN_9_b619 bus2=LVN_9_b625 phases=3 linecode=2c_022 length=7.008910 units=m
new line.LVN_9_117 bus1=LVN_9_b619 bus2=LVN_9_b626 phases=3 linecode=35_SA length=9.480190 units=m
new line.LVN_9_118 bus1=LVN_9_b627 bus2=LVN_9_b633 phases=3 linecode=4c_1 length=5.726520 units=m
new line.LVN_9_119 bus1=LVN_9_b627 bus2=LVN_9_b679 phases=3 linecode=4c_1 length=11.803900 units=m
new line.LVN_9_120 bus1=LVN_9_b627 bus2=LVN_9_b684 phases=3 linecode=4c_1 length=12.622500 units=m
new line.LVN_9_121 bus1=LVN_9_b633 bus2=LVN_9_b640 phases=3 linecode=35_SA length=6.152600 units=m
new line.LVN_9_122 bus1=LVN_9_b633 bus2=LVN_9_b655 phases=3 linecode=2c_16 length=6.444110 units=m
new line.LVN_9_123 bus1=LVN_9_b636 bus2=LVN_9_b652 phases=3 linecode=2c_16 length=7.508330 units=m
new line.LVN_9_124 bus1=LVN_9_b636 bus2=LVN_9_b658 phases=3 linecode=2c_16 length=9.338990 units=m
new line.LVN_9_125 bus1=LVN_9_b636 bus2=LVN_9_b679 phases=3 linecode=4c_1 length=10.124600 units=m
new line.LVN_9_126 bus1=LVN_9_b651 bus2=LVN_9_b685 phases=3 linecode=35_SA length=6.823210 units=m
new line.LVN_9_127 bus1=LVN_9_b660 bus2=LVN_9_b684 phases=3 linecode=35_SA length=21.866500 units=m
new line.LVN_9_128 bus1=LVN_9_b684 bus2=LVN_9_b685 phases=3 linecode=4c_1 length=5.904860 units=m
new line.LVN_9_129 bus1=LVN_9_b685 bus2=LVN_9_b689 phases=3 linecode=2c_022 length=5.351340 units=m
new line.LVN_9_130 bus1=LVN_9_b691 bus2=LVN_9_b778 phases=3 linecode=2c_022 length=14.432900 units=m
new line.LVN_9_131 bus1=LVN_9_b697 bus2=LVN_9_b703 phases=3 linecode=2c_022 length=30.100900 units=m
new line.LVN_9_132 bus1=LVN_9_b697 bus2=LVN_9_b705 phases=3 linecode=4c_1 length=10.276900 units=m
new line.LVN_9_133 bus1=LVN_9_b697 bus2=LVN_9_b723 phases=3 linecode=4c_1 length=16.058600 units=m
new line.LVN_9_134 bus1=LVN_9_b705 bus2=LVN_9_b718 phases=3 linecode=35_SA length=6.678620 units=m
new line.LVN_9_135 bus1=LVN_9_b705 bus2=LVN_9_b761 phases=3 linecode=2c_16 length=5.548210 units=m
new line.LVN_9_136 bus1=LVN_9_b711 bus2=LVN_9_b788 phases=3 linecode=35_SA length=16.051500 units=m
new line.LVN_9_137 bus1=LVN_9_b719 bus2=LVN_9_b736 phases=3 linecode=2c_022 length=5.346540 units=m
new line.LVN_9_138 bus1=LVN_9_b719 bus2=LVN_9_b740 phases=3 linecode=2c_16 length=6.032560 units=m
new line.LVN_9_139 bus1=LVN_9_b719 bus2=LVN_9_b757 phases=3 linecode=4c_1 length=13.714200 units=m
new line.LVN_9_140 bus1=LVN_9_b723 bus2=LVN_9_b746 phases=3 linecode=4c_1 length=10.658400 units=m
new line.LVN_9_141 bus1=LVN_9_b723 bus2=LVN_9_b757 phases=3 linecode=4c_1 length=12.949400 units=m
new line.LVN_9_142 bus1=LVN_9_b746 bus2=LVN_9_b759 phases=3 linecode=2c_022 length=6.655460 units=m
new line.LVN_9_143 bus1=LVN_9_b746 bus2=LVN_9_b829 phases=3 linecode=2c_022 length=6.387480 units=m
new line.LVN_9_144 bus1=LVN_9_b757 bus2=LVN_9_b778 phases=3 linecode=4c_1 length=7.300870 units=m
new line.LVN_9_145 bus1=LVN_9_b778 bus2=LVN_9_b787 phases=3 linecode=4c_1 length=8.159260 units=m
new line.LVN_9_146 bus1=LVN_9_b787 bus2=LVN_9_b788 phases=3 linecode=4c_1 length=2.083250 units=m
new line.LVN_9_147 bus1=LVN_9_b787 bus2=LVN_9_b804 phases=3 linecode=4c_1 length=5.334970 units=m
new line.LVN_9_148 bus1=LVN_9_b791 bus2=LVN_9_b812 phases=3 linecode=35_SA length=6.913550 units=m
new line.LVN_9_149 bus1=LVN_9_b791 bus2=LVN_9_b816 phases=3 linecode=4c_1 length=14.593400 units=m
new line.LVN_9_150 bus1=LVN_9_b791 bus2=LVN_9_b820 phases=3 linecode=2c_16 length=8.245810 units=m
new line.LVN_9_151 bus1=LVN_9_b797 bus2=LVN_9_b806 phases=3 linecode=2c_022 length=28.910600 units=m
new line.LVN_9_152 bus1=LVN_9_b797 bus2=LVN_9_b816 phases=3 linecode=4c_1 length=14.518300 units=m
new line.LVN_9_153 bus1=LVN_9_b797 bus2=LVN_9_b823 phases=3 linecode=2c_022 length=20.427400 units=m
new line.LVN_9_154 bus1=LVN_9_b804 bus2=LVN_9_b816 phases=3 linecode=4c_1 length=10.976900 units=m
new line.LVN_9_155 bus1=LVN_9_b804 bus2=LVN_9_b821 phases=3 linecode=2c_16 length=19.293200 units=m
